1065
Atoms with added C and O
Pt 5.38985 5.38761 15.09041
Pt 5.23488 7.27355 13.07163
Pt 5.22128 9.13741 11.09471
Pt 5.24339 7.25844 17.05039
Pt 5.04650 9.18527 15.05096
Pt 5.24403 9.15769 19.07159
Pt 5.21253 11.09083 9.13630
Pt 5.25324 13.09220 7.24289
Pt 4.97976 11.12181 13.08009
Pt 5.00123 13.07762 11.13418
Pt 5.00377 11.09200 17.07787
Pt 4.89917 13.07286 15.05837
Pt 5.25444 11.11830 21.01660
Pt 5.00627 13.10657 19.01714
Pt 5.23872 13.06156 22.87337
Pt 5.39797 15.09888 5.35865
Pt 5.02909 15.06210 9.18061
Pt 5.26380 17.05547 7.27559
Pt 4.88257 15.06931 13.08001
Pt 5.02192 17.04506 11.12730
Pt 4.86992 15.07023 17.04593
Pt 4.88208 17.07299 15.07692
Pt 5.05534 15.09760 20.97441
Pt 5.01608 17.07870 19.05957
Pt 5.37937 15.07724 24.79847
Pt 5.23175 17.08391 22.90842
Pt 5.22080 19.06434 9.12248
Pt 5.01195 19.04240 13.10310
Pt 5.22071 21.04008 11.09097
Pt 5.01370 19.05291 17.07632
Pt 5.04596 20.97105 15.05014
Pt 5.21335 19.08054 21.02914
Pt 5.24452 21.02330 19.05129
Pt 5.24232 22.91342 13.06875
Pt 5.25461 22.88590 17.04803
Pt 5.37957 24.79271 15.08083
Pt 7.27013 5.26425 13.09852
Pt 9.12241 5.22741 11.10177
Pt 7.26551 5.22751 17.06041
Pt 9.19173 5.03876 15.08708
Pt 9.12055 5.22318 19.05866
Pt 7.03914 8.97826 8.97163
Pt 8.98327 7.07816 8.99520
Pt 8.96808 8.96871 7.06391
Pt 7.09458 7.09699 10.96599
Pt 7.14447 9.18970 13.11449
Pt 9.18541 7.16244 13.10546
Pt 9.11331 9.08949 11.07879
Pt 7.22486 7.23003 15.08045
Pt 7.14929 9.18047 17.07611
Pt 9.20245 7.18427 17.06605
Pt 9.14074 9.13519 15.08079
Pt 7.08084 7.06257 19.19837
Pt 7.03439 8.98985 21.15355
Pt 8.99169 7.06939 21.15682
Pt 9.07886 9.08002 19.09235
Pt 8.97079 9.01535 23.09405
Pt 7.25363 13.07381 5.26211
Pt 9.14558 11.10589 5.22333
Pt 7.06343 10.96025 7.05818
Pt 7.17051 13.08013 9.18815
Pt 9.08590 11.09286 9.09997
Pt 9.19399 13.07231 7.15421
Pt 7.12120 11.12591 11.13263
Pt 6.96117 13.13063 13.09219
Pt 9.09045 11.13256 13.09933
Pt 9.10588 13.09289 11.10915
Pt 7.03523 11.14785 15.05689
Pt 6.96781 13.13108 17.01322
Pt 9.10983 11.12940 17.06644
Pt 9.02036 13.09417 15.05621
Pt 7.12544 11.14536 19.04825
Pt 7.15425 13.10590 20.94695
Pt 9.09798 11.05129 21.03568
Pt 9.08402 13.11597 19.03186
Pt 7.06663 10.96967 23.07175
Pt 7.28159 13.09637 24.90386
Pt 9.13178 11.07106 24.93166
Pt 9.16220 13.11393 22.97231
Pt 7.27821 17.06611 5.22749
Pt 9.17905 15.07113 5.04418
Pt 7.23451 15.05203 7.21707
Pt 7.14696 17.06450 9.15886
Pt 9.13801 15.06804 9.13926
Pt 9.16772 17.04174 7.14861
Pt 7.01718 15.06840 11.16992
Pt 6.95455 17.02095 13.12401
Pt 9.01889 15.08422 13.12609
Pt 9.06945 17.03686 11.11505
Pt 6.91536 15.06380 15.08961
Pt 6.95546 17.03571 17.01910
Pt 9.03850 15.07634 17.02233
Pt 9.03218 17.02350 15.08722
Pt 7.03817 15.06132 18.98121
Pt 7.15930 17.04553 20.98408
Pt 9.17268 15.06950 20.99070
Pt 9.07974 17.05239 19.00658
Pt 7.24203 15.07876 22.91616
Pt 7.27014 17.05218 24.91629
Pt 9.21133 15.06471 25.11576
Pt 9.18531 17.03619 22.98077
Pt 9.12544 19.05170 5.25676
Pt 7.05771 19.20043 7.06896
Pt 7.06723 21.13745 8.99387
Pt 9.07954 19.07690 9.09922
Pt 8.96811 21.14305 7.07203
Pt 7.13356 19.03282 11.10055
Pt 7.16268 20.97024 13.08506
Pt 9.07305 19.02832 13.07559
Pt 9.09440 21.06498 11.08232
Pt 7.03222 18.99689 15.06212
Pt 7.15983 20.96571 17.03619
Pt 9.08820 19.03625 17.06247
Pt 9.13652 20.99471 15.08071
Pt 7.11473 19.03468 19.00649
Pt 7.06808 21.15740 21.18244
Pt 9.08966 19.06918 21.02858
Pt 9.11612 21.05897 19.07336
Pt 7.06178 19.18939 23.07341
Pt 9.11680 19.06241 24.91967
Pt 9.01371 21.13923 23.10743
Pt 8.97863 23.10328 8.96628
Pt 7.05544 23.09511 10.95308
Pt 7.26184 24.90732 13.10013
Pt 9.16534 23.00436 13.11159
Pt 9.11884 24.92847 11.07015
Pt 7.25493 22.92614 15.05215
Pt 7.25812 24.89666 17.06076
Pt 9.17594 22.97466 17.06829
Pt 9.19532 25.11944 15.07026
Pt 7.08127 23.07029 19.15944
Pt 8.96788 23.10657 21.18410
Pt 9.11259 24.91038 19.04833
Pt 11.09913 5.23099 9.12437
Pt 13.06890 5.25986 7.23619
Pt 11.11918 4.98848 13.08203
Pt 13.08647 5.00183 11.11615
Pt 11.11556 4.99995 17.05093
Pt 13.08519 4.89854 15.09259
Pt 11.10875 5.21101 21.02255
Pt 13.08379 5.00983 19.01828
Pt 13.07949 5.27228 22.90953
Pt 11.07998 9.11904 5.21684
Pt 13.07990 7.24382 5.26385
Pt 10.99031 7.09629 7.05240
Pt 11.05443 9.11930 9.07823
Pt 13.08117 7.15073 9.19362
Pt 13.07423 9.20251 7.17095
Pt 11.13386 7.15022 11.13149
Pt 11.12062 9.08455 13.11337
Pt 13.12814 6.97371 13.10534
Pt 13.10273 9.09704 11.14473
Pt 11.17427 7.03367 15.06975
Pt 11.11723 9.09044 17.05242
Pt 13.12765 6.95376 17.01777
Pt 13.12501 9.04384 15.09336
Pt 11.14577 7.10738 19.02972
Pt 11.09067 9.07712 21.06956
Pt 13.08202 7.16172 20.96044
Pt 13.11383 9.07934 18.99881
Pt 10.96456 7.06026 23.07027
Pt 11.09989 9.13944 24.91250
Pt 13.06689 7.25317 24.90299
Pt 13.09181 9.15895 22.98491
Pt 11.09519 13.06804 4.98393
Pt 13.06666 11.10787 4.97686
Pt 11.12056 11.12931 7.13098
Pt 11.13302 13.09482 9.10677
Pt 13.11189 11.11527 9.08922
Pt 13.12386 13.09847 6.96402
Pt 11.10614 11.10475 11.10871
Pt 11.09517 13.09939 13.09488
Pt 13.07388 11.05982 13.07487
Pt 13.07706 13.10396 11.09560
Pt 11.12564 11.09580 15.07448
Pt 11.07457 13.08788 17.06163
Pt 13.08197 11.06407 17.05762
Pt 13.09337 13.08255 15.08843
Pt 11.09540 11.09473 19.05214
Pt 11.13627 13.08372 21.04217
Pt 13.10382 11.14146 21.06132
Pt 13.09728 13.11421 19.06322
Pt 11.14101 11.12229 23.03167
Pt 11.12111 13.06320 25.16455
Pt 13.09078 11.09395 25.16493
Pt 13.13277 13.13842 23.16637
Pt 11.12132 17.06729 4.99468
Pt 13.06336 15.09619 4.88819
Pt 11.14030 15.09627 7.01302
Pt 11.13472 17.07408 9.11000
Pt 13.08950 15.05770 9.00657
Pt 13.11406 17.04511 6.96297
Pt 11.11292 15.08661 11.12395
Pt 11.10074 17.07112 13.07429
Pt 13.08164 15.09075 13.10998
Pt 13.12084 17.05644 11.07374
Pt 11.04492 15.06637 15.06385
Pt 11.09949 17.07032 17.03714
Pt 13.06484 15.07292 17.07737
Pt 13.09017 17.07133 15.06652
Pt 11.11640 15.08707 19.06218
Pt 11.14478 17.03569 21.05393
Pt 13.10657 15.09098 21.10957
Pt 13.10745 17.06754 19.08104
Pt 11.15580 15.05348 23.11589
Pt 11.10490 17.08979 25.17532
Pt 13.08064 15.07596 25.25779
Pt 13.12288 17.04849 23.16858
Pt 11.09101 21.02924 5.22998
Pt 13.06415 19.05770 4.98152
Pt 11.14260 19.02344 7.11670
Pt 11.06990 21.03180 9.08063
Pt 13.10791 19.01829 9.09824
Pt 13.11212 20.95771 7.16908
Pt 11.10781 19.06574 11.08831
Pt 11.14234 21.06751 13.09351
Pt 13.07803 19.05826 13.11397
Pt 13.10852 21.07101 11.11152
Pt 11.09875 19.03395 15.09413
Pt 11.14445 21.05203 17.04530
Pt 13.08233 19.06408 17.06669
Pt 13.11626 21.12306 15.05597
Pt 11.08199 19.07627 19.07753
Pt 11.05783 21.07276 21.07506
Pt 13.08446 19.02139 21.07502
Pt 13.10836 21.04404 19.04217
Pt 11.11529 19.01772 23.00393
Pt 11.11662 21.01440 24.89689
Pt 13.10251 19.02199 25.15138
Pt 13.08136 20.95850 22.99686
Pt 13.06122 22.91192 5.24720
Pt 10.95098 23.07910 7.05371
Pt 11.08608 24.92559 9.12956
Pt 13.07411 23.00945 9.17515
Pt 13.07226 24.90314 7.25330
Pt 11.11211 23.04297 11.11122
Pt 11.12368 25.13719 13.10222
Pt 13.11593 23.19387 13.12645
Pt 13.08068 25.17187 11.13239
Pt 11.15260 23.11912 15.08251
Pt 11.10185 25.17757 17.08040
Pt 13.09774 23.17918 17.04815
Pt 13.09588 25.24282 15.05590
Pt 11.13242 23.01325 19.04669
Pt 11.09400 24.90087 21.02514
Pt 13.08245 22.98534 20.96259
Pt 13.11059 25.16222 19.03711
Pt 10.96606 23.06300 23.09315
Pt 13.07351 22.88301 24.91339
Pt 13.06104 24.91407 22.90953
Pt 15.06753 5.35852 5.36185
Pt 15.07855 5.03960 9.19464
Pt 17.05592 5.27071 7.25574
Pt 15.06413 4.90760 13.10108
Pt 17.04525 5.01905 11.10586
Pt 15.07787 4.87354 17.06198
Pt 17.07904 4.87037 15.09847
Pt 15.07204 5.03232 20.93499
Pt 17.06506 4.97849 19.05135
Pt 15.08357 5.39870 24.76049
Pt 17.08486 5.22430 22.87809
Pt 15.07805 9.18328 5.05048
Pt 17.07941 7.26276 5.24397
Pt 15.07647 7.25182 7.22491
Pt 15.07057 9.16996 9.15865
Pt 17.05812 7.16493 9.20559
Pt 17.06630 9.20197 7.14847
Pt 15.07497 7.03583 11.15950
Pt 15.06677 9.00272 13.10611
Pt 17.05868 6.99853 13.09793
Pt 17.04738 9.08316 11.10794
Pt 15.07096 6.92780 15.08742
Pt 15.07599 9.02151 17.03632
Pt 17.05410 6.97936 17.02413
Pt 17.01353 9.03411 15.07802
Pt 15.06076 7.03386 18.99887
Pt 15.06431 9.14894 20.99314
Pt 17.03071 7.17150 20.98454
Pt 17.05376 9.08403 19.04026
Pt 15.07403 7.22973 22.90282
Pt 15.06580 9.20062 25.09427
Pt 17.07720 7.24744 24.90713
Pt 17.06664 9.17524 22.97211
Pt 15.07020 13.10614 4.87007
Pt 17.06734 11.12305 5.01083
Pt 15.08244 11.17341 7.02401
Pt 15.09236 13.10697 8.99901
Pt 17.06897 11.10752 9.09642
Pt 17.03500 13.10503 6.96326
Pt 15.09671 11.08852 11.10484
Pt 15.07323 13.07455 13.08333
Pt 17.04901 11.07119 13.08985
Pt 17.04619 13.11248 11.07895
Pt 15.05237 11.06868 15.07660
Pt 15.06983 13.06937 17.06592
Pt 17.05721 11.05735 17.03906
Pt 17.06925 13.06592 15.07517
Pt 15.08706 11.08548 19.06314
Pt 15.09553 13.11148 21.11577
Pt 17.07360 11.13721 21.07168
Pt 17.05864 13.07195 19.07281
Pt 15.05200 11.14237 23.14328
Pt 15.06493 13.06503 25.25633
Pt 17.06398 11.12129 25.16499
Pt 17.02974 13.12230 23.15229
Pt 15.09119 17.04848 4.88105
Pt 17.04472 15.06425 4.87917
Pt 15.09838 15.09324 6.93031
Pt 15.07961 17.05201 9.02265
Pt 17.05045 15.06103 9.00725
Pt 17.02279 17.01826 6.96313
Pt 15.06355 15.08710 11.05811
Pt 15.08102 17.07910 13.07293
Pt 17.05425 15.06310 13.09557
Pt 17.05291 17.06394 11.08800
Pt 15.05756 15.07616 15.05127
Pt 15.05838 17.06287 17.04007
Pt 17.05270 15.06143 17.05450
Pt 17.06300 17.06967 15.05512
Pt 15.07954 15.05755 19.07003
Pt 15.09725 17.02659 21.14744
Pt 17.02288 15.09445 21.11813
Pt 17.06706 17.06122 19.06007
Pt 15.08556 15.05995 23.24753
Pt 15.07558 17.04682 25.27536
Pt 17.04538 15.06480 25.27905
Pt 17.03714 17.03476 23.15721
Pt 15.07701 20.93938 5.05005
Pt 17.06018 19.04317 4.97704
Pt 15.06327 18.98145 7.04083
Pt 15.07041 20.99056 9.16758
Pt 17.03647 18.99828 9.09619
Pt 17.04456 20.99049 7.15955
Pt 15.06876 19.03992 11.09039
Pt 15.07991 21.11439 13.11147
Pt 17.04415 19.05016 13.08590
Pt 17.06895 21.05620 11.14224
Pt 15.06954 19.07392 15.06373
Pt 15.05369 21.12217 17.03184
Pt 17.04007 19.05336 17.04165
Pt 17.05230 21.14525 15.05290
Pt 15.09527 19.02934 19.03691
Pt 15.09585 21.01359 21.00645
Pt 17.06014 19.00527 21.03763
Pt 17.05042 21.05417 18.99986
Pt 15.05437 19.00073 23.10271
Pt 15.05880 20.96865 25.09321
Pt 17.04418 19.04806 25.17421
Pt 17.07526 20.96691 22.98506
Pt 15.07039 24.77074 5.37750
Pt 17.05193 22.88703 5.25144
Pt 15.09181 22.92326 7.25574
Pt 15.06822 25.09006 9.18767
Pt 17.03990 22.98464 9.16998
Pt 17.08663 24.89512 7.27692
Pt 15.06594 23.14548 11.16771
Pt 15.08047 25.23200 13.10573
Pt 17.01943 23.18166 13.12559
Pt 17.05937 25.13937 11.13367
Pt 15.09716 23.24302 15.07454
Pt 15.07017 25.26275 17.07417
Pt 17.03377 23.17860 17.02315
Pt 17.06746 25.23938 15.06778
Pt 15.09070 23.12022 18.99250
Pt 15.06050 25.08350 20.94724
Pt 17.07508 22.98300 20.97573
Pt 17.05026 25.14076 19.02681
Pt 15.08906 22.93213 22.89643
Pt 15.05494 24.76300 24.78045
Pt 17.08298 22.87543 24.88121
Pt 17.09297 24.91243 22.89869
Pt 19.05982 5.21270 9.14386
Pt 19.03801 4.99090 13.08281
Pt 20.99902 5.23724 11.09467
Pt 19.05328 5.00364 17.06512
Pt 20.97598 5.04332 15.08715
Pt 19.05133 5.22212 21.01534
Pt 21.02622 5.23155 19.03653
Pt 19.07732 9.11034 5.21045
Pt 19.17186 7.06314 7.08485
Pt 19.10069 9.07834 9.09665
Pt 21.14377 7.06051 8.99017
Pt 21.15633 8.99477 7.05455
Pt 19.03890 7.10917 11.10334
Pt 19.02174 9.09851 13.10439
Pt 20.99071 7.15368 13.08421
Pt 21.06222 9.09091 11.05783
Pt 19.00794 7.04233 15.07646
Pt 19.03279 9.09662 17.03348
Pt 20.98783 7.17168 17.07645
Pt 21.00021 9.17557 15.08552
Pt 19.01807 7.12051 19.04479
Pt 19.08533 9.11279 21.06686
Pt 21.14153 7.04574 21.14312
Pt 21.06145 9.08270 19.08463
Pt 19.16281 7.05766 23.07272
Pt 19.04166 9.15359 24.93508
Pt 21.15160 9.00033 23.09294
Pt 19.04817 13.07983 5.00474
Pt 21.02248 11.09029 5.22609
Pt 19.02760 11.12954 7.12417
Pt 19.03597 13.11524 9.09670
Pt 21.03853 11.05804 9.07946
Pt 20.95610 13.07133 7.17435
Pt 19.07288 11.11265 11.07896
Pt 19.05645 13.11697 13.07242
Pt 21.06010 11.13789 13.11452
Pt 21.07137 13.08471 11.15209
Pt 19.03706 11.11077 15.09564
Pt 19.08272 13.11123 17.06697
Pt 21.04111 11.15169 17.06251
Pt 21.11072 13.12766 15.08889
Pt 19.04873 11.09697 19.04197
Pt 19.03662 13.09592 21.05505
Pt 21.04701 11.08624 21.05175
Pt 21.06118 13.08475 19.01670
Pt 19.04390 11.13875 23.04530
Pt 19.05026 13.08513 25.16514
Pt 21.02300 11.07697 24.92607
Pt 20.97675 13.09700 23.00543
Pt 19.02799 17.04559 4.99795
Pt 20.96117 15.08846 5.06062
Pt 18.99500 15.09213 7.04419
Pt 19.04236 17.05215 9.11526
Pt 21.01266 15.08090 9.15197
Pt 20.95446 17.06279 7.14851
Pt 19.04719 15.06610 11.11961
Pt 19.05493 17.04470 13.08803
Pt 21.15344 15.06504 13.13080
Pt 21.06518 17.02589 11.13530
Pt 19.11338 15.05681 15.06787
Pt 19.08718 17.03030 17.04982
Pt 21.10829 15.05691 17.03320
Pt 21.13174 17.04439 15.06363
Pt 19.05119 15.08820 19.06318
Pt 19.00530 17.06355 21.05690
Pt 21.01040 15.08167 20.99068
Pt 21.08154 17.05306 19.04092
Pt 18.99064 15.07999 23.13996
Pt 19.01825 17.06735 25.15724
Pt 20.93562 15.07900 25.12802
Pt 20.98769 17.03645 22.97964
Pt 19.05935 20.99160 5.24615
Pt 20.99375 19.05891 5.22859
Pt 19.01464 19.01922 7.14055
Pt 19.09076 21.06278 9.09096
Pt 21.03683 19.06419 9.10375
Pt 21.14755 21.16096 7.03053
Pt 19.08161 19.05915 11.08481
Pt 19.03071 21.05111 13.10044
Pt 21.05431 19.03097 13.11228
Pt 21.03725 21.03590 11.05829
Pt 19.03834 19.03550 15.05339
Pt 19.00873 21.07655 17.06445
Pt 21.07588 19.01866 17.04471
Pt 20.99091 21.00925 15.08227
Pt 19.03726 19.05985 19.06274
Pt 19.08016 21.07011 21.06288
Pt 21.07418 19.10146 21.04711
Pt 21.05294 21.05436 19.08904
Pt 19.04558 19.00541 23.02770
Pt 19.05334 21.03789 24.90642
Pt 20.99853 19.03986 24.91743
Pt 21.14653 21.18287 23.11239
Pt 19.19311 23.06965 7.07649
Pt 19.07187 24.92266 9.15621
Pt 21.15326 23.09220 8.98962
Pt 19.00850 23.01839 11.13765
Pt 19.02576 25.14963 13.06176
Pt 20.98591 23.01137 13.10815
Pt 21.03629 24.90260 11.09958
Pt 18.98554 23.14038 15.05131
Pt 19.04101 25.13427 17.08289
Pt 20.98072 22.99752 17.07742
Pt 20.95687 25.10174 15.05489
Pt 19.00876 23.00035 19.03266
Pt 19.06330 24.93207 21.03213
Pt 21.14255 23.10964 21.14379
Pt 20.99906 24.92430 19.04194
Pt 19.19182 23.06630 23.09643
Pt 22.89413 5.25642 13.09744
Pt 22.88029 5.26298 17.07352
Pt 24.78140 5.39432 15.08264
Pt 23.08524 8.99223 9.01024
Pt 23.06040 7.08776 10.95257
Pt 22.98373 9.18397 13.11605
Pt 24.92457 7.24116 13.07425
Pt 24.93432 9.11253 11.08431
Pt 22.89556 7.25036 15.05850
Pt 22.97946 9.19367 17.07402
Pt 24.89363 7.24317 17.06803
Pt 25.10167 9.20084 15.06495
Pt 23.08502 7.08256 19.19811
Pt 23.08577 8.97042 21.16456
Pt 24.90753 9.15165 19.05597
Pt 22.89248 13.06219 5.24270
Pt 23.07962 10.98247 7.09208
Pt 23.00953 13.10402 9.18412
Pt 24.90332 11.11388 9.11374
Pt 24.90976 13.08728 7.26935
Pt 23.04019 11.10552 11.13896
Pt 23.19003 13.11058 13.11245
Pt 25.14994 11.12434 13.08801
Pt 25.15717 13.09785 11.09912
Pt 23.11498 11.16095 15.08648
Pt 23.17194 13.12398 17.01431
Pt 25.16570 11.10305 17.08114
Pt 25.27142 13.07913 15.09318
Pt 23.00942 11.11370 19.01092
Pt 23.00465 13.11590 20.94731
Pt 24.93885 11.07828 21.01447
Pt 25.14869 13.10027 19.04773
Pt 23.08225 10.98944 23.06955
Pt 22.90123 13.08219 24.88273
Pt 24.90009 13.05998 22.89267
Pt 22.90268 17.08448 5.26574
Pt 24.75575 15.07135 5.37246
Pt 22.92227 15.05600 7.25020
Pt 22.99681 17.03271 9.18572
Pt 25.10938 15.06766 9.18228
Pt 24.91935 17.06299 7.23562
Pt 23.12362 15.06523 11.15335
Pt 23.16069 17.01891 13.12084
Pt 25.27173 15.04969 13.09025
Pt 25.14309 17.05240 11.10244
Pt 23.21300 15.05644 15.07553
Pt 23.18952 17.03143 17.04524
Pt 25.27206 15.05292 17.08086
Pt 25.25909 17.07359 15.06536
Pt 23.13286 15.07038 18.99354
Pt 23.00373 17.06499 20.94757
Pt 25.09668 15.08543 20.95509
Pt 25.15960 17.04093 19.01736
Pt 22.91468 15.07318 22.91140
Pt 22.88897 17.06553 24.91360
Pt 24.78757 15.09681 24.75500
Pt 24.92179 17.07504 22.91035
Pt 23.06856 19.16212 7.06841
Pt 23.08293 21.16944 8.99651
Pt 24.91909 19.04414 9.14653
Pt 23.00703 19.03332 11.12315
Pt 23.01544 20.96739 13.08038
Pt 25.13983 19.02821 13.09783
Pt 24.91154 21.00926 11.09651
Pt 23.13224 18.99120 15.05595
Pt 22.98358 20.98199 17.04551
Pt 25.16117 19.05758 17.08188
Pt 25.09060 20.97657 15.08986
Pt 23.02909 19.04713 19.03071
Pt 23.11607 21.16126 21.18426
Pt 24.89572 19.06594 21.01123
Pt 24.92617 20.99927 19.03727
Pt 23.06642 19.18931 23.08535
Pt 23.05432 23.06917 10.97476
Pt 22.87998 24.91387 13.09523
Pt 24.92238 22.86610 13.06094
Pt 22.89004 22.91653 15.06849
Pt 22.90923 24.90613 17.08769
Pt 24.89843 22.89883 17.06976
Pt 24.77263 24.77104 15.08076
Pt 23.06666 23.08524 19.20397
C 3.97580 3.97324 15.09266
O 2.91526 2.91246 15.09435
C 3.68724 6.04655 12.75654
O 2.52651 5.12630 12.52023
C 3.60240 8.16191 10.44078
O 2.38824 7.43029 9.95033
C 3.69689 6.02890 17.36112
O 2.53701 5.10675 17.59417
C 3.32193 8.17244 15.04683
O 2.02850 7.41281 15.04373
C 3.62584 8.18368 19.72943
O 2.41219 7.45318 20.22282
C 3.59339 10.43674 8.16133
O 2.37903 9.94618 7.43011
C 3.70866 12.78039 6.01121
O 2.55023 12.54652 5.08745
C 3.14821 10.40459 12.71815
O 1.77454 9.86668 12.44671
C 3.16964 12.71446 10.41767
O 1.79595 12.44209 9.88028
C 3.17494 10.36873 17.44157
O 1.80332 9.82628 17.71434
C 2.93680 12.68675 15.05516
O 1.46501 12.39717 15.05275
C 3.63668 10.46651 21.99538
O 2.42335 9.97766 22.72946
C 3.17404 12.74836 19.73451
O 1.79986 12.47971 20.27253
C 3.69128 12.74481 24.10020
O 2.53071 12.50725 25.02032
C 3.98662 15.10236 3.94158
O 2.92812 15.10497 2.87877
C 3.30410 15.05988 8.16848
O 2.01036 15.05822 7.40938
C 3.71740 17.36762 6.04627
O 2.55760 17.60173 5.12429
C 2.91981 15.06822 12.69584
O 1.44774 15.06740 12.40771
C 3.19052 17.40395 10.40813
O 1.81698 17.67311 9.86876
C 2.90621 15.06931 17.42519
O 1.43342 15.06862 17.70963
C 2.91942 17.45771 15.07729
O 1.44744 17.74624 15.07757
C 3.33189 15.10149 21.98915
O 2.03930 15.10440 22.75020
C 3.18774 17.44290 19.78382
O 1.81648 17.71605 20.32700
C 3.96718 15.07757 26.21471
O 2.90804 15.07782 27.27689
C 3.68641 17.39930 24.13824
O 2.52740 17.63584 25.06059
C 3.60325 19.71919 8.14538
O 2.39008 20.21032 7.41256
C 3.18150 19.76406 12.74442
O 1.80866 20.30531 12.47540
C 3.60374 22.01888 10.43724
O 2.39101 22.75298 9.94694
C 3.18482 19.77599 17.44010
O 1.81316 20.31830 17.71294
C 3.32184 21.98466 15.04587
O 2.02875 22.74486 15.04267
C 3.59619 19.73739 22.00553
O 2.38332 20.23002 22.73782
C 3.62748 22.00175 19.70536
O 2.41470 22.73559 20.19591
C 3.69796 24.14455 12.75364
O 2.53970 25.06790 12.51731
C 3.70835 24.11576 17.35869
O 2.54865 25.03816 17.59168
C 3.96698 26.20855 15.08168
O 2.90753 27.27042 15.08232
C 6.04019 3.71821 12.78705
O 5.11773 2.55869 12.55345
C 8.14445 3.60955 10.44900
O 7.41099 2.39615 9.95943
C 6.03800 3.67966 17.37248
O 5.11737 2.51878 17.60653
C 8.18030 3.31337 15.08915
O 7.42172 2.01932 15.09071
C 8.14291 3.60565 19.71272
O 7.40968 2.39249 20.20327
C 5.67594 7.94401 7.93626
O 4.65354 7.16832 7.15973
C 7.94623 5.71680 7.96019
O 7.16845 4.69577 7.18393
C 7.93122 7.93195 5.70375
O 7.15357 7.15438 4.68362
C 5.76552 5.76833 10.28168
O 4.76873 4.77184 9.76844
C 5.75358 5.73227 19.88297
O 4.75813 4.73455 20.39642
C 5.66857 7.95619 22.18607
O 4.64421 7.18096 22.96047
C 7.95632 5.70684 22.19194
O 7.17979 4.68493 22.96828
C 7.93261 7.98475 24.45789
O 7.15398 7.21180 25.48077
C 6.02261 12.75883 3.71764
O 5.09935 12.52260 2.55929
C 8.17068 10.45330 3.60355
O 7.43950 9.96386 2.38871
C 5.73454 10.27773 5.72843
O 4.73788 9.76584 4.73111
C 5.73622 10.28766 24.40023
O 4.73841 9.77615 25.39659
C 6.05417 12.78474 26.45186
O 5.13360 12.55102 27.61286
C 8.15639 10.41394 26.54932
O 7.42484 9.92111 27.76256
C 6.05203 17.37924 3.67880
O 5.13240 17.61410 2.51728
C 8.16559 15.07046 3.31997
O 7.40549 15.06996 2.02682
C 6.04249 17.36318 26.46425
O 5.12176 17.59642 27.62522
C 8.20275 15.06294 26.84282
O 7.44631 15.06162 28.13812
C 8.14605 19.70633 3.64052
O 7.41150 20.19730 2.42834
C 5.72791 19.88470 5.74102
O 4.73056 20.39791 4.74507
C 5.70320 22.17012 7.95802
O 4.68017 22.94462 7.18112
C 7.92902 22.17553 5.71032
O 7.14969 22.94990 4.68903
C 5.70689 22.19141 22.22071
O 4.68601 22.96692 22.99941
C 5.73138 19.87249 24.40135
O 4.73358 20.38481 25.39731
C 8.13833 19.71724 26.53640
O 7.40448 20.20836 27.74894
C 7.98189 22.17155 24.47480
O 7.20803 22.94578 25.50032
C 7.94421 24.46550 7.92977
O 7.16840 25.48716 7.15238
C 5.72632 24.42431 10.26994
O 4.72949 25.42121 9.75758
C 6.03268 26.45414 12.78944
O 5.11081 27.61425 12.55643
C 8.14165 26.54507 10.41310
O 7.40876 27.75752 9.92031
C 6.02796 26.44231 17.37326
O 5.10534 27.60155 17.60764
C 8.18496 26.84547 15.06945
O 7.42719 28.13999 15.06884
C 5.75132 24.40049 19.83899
O 4.75386 25.39815 20.34865
C 7.93234 24.46842 22.21997
O 7.15569 25.48981 22.99688
C 8.13262 26.52691 19.70138
O 7.39764 27.73931 20.19117
C 10.44577 3.61331 8.14649
O 9.95575 2.40005 7.41309
C 12.75349 3.71665 6.00371
O 12.51693 2.55924 5.07935
C 10.40100 3.15727 12.72021
O 9.86237 1.78387 12.44884
C 12.72507 3.17107 10.39664
O 12.45401 1.79799 9.85701
C 10.39592 3.16879 17.41006
O 9.85620 1.79542 17.67941
C 12.70140 2.93572 15.09598
O 12.41355 1.46360 15.09853
C 10.45758 3.59159 21.99899
O 9.96921 2.37701 22.73132
C 12.72149 3.17845 19.73577
O 12.44976 1.80492 20.27389
C 12.76540 3.72933 24.14268
O 12.52983 2.57212 25.06754
C 10.42457 8.14192 3.59954
O 9.93301 7.40908 2.38656
C 12.76598 6.01162 3.72011
O 12.53053 5.08747 2.56231
C 10.31119 5.76975 5.71857
O 9.80185 4.77485 4.71820
C 10.28198 5.72934 24.39796
O 9.77005 4.73115 25.39372
C 10.44596 8.16301 26.53082
O 9.95552 7.43069 27.74456
C 12.75115 6.02334 26.44825
O 12.51435 5.10097 27.60720
C 10.37366 12.70418 3.15445
O 9.83251 12.43129 1.78233
C 12.70262 10.38878 3.14646
O 12.42960 9.84947 1.77365
C 10.40364 12.69814 26.99539
O 9.86554 12.42435 28.36852
C 12.73089 10.37189 26.99499
O 12.46098 9.83035 28.36753
C 10.40311 17.42920 3.16351
O 9.86445 17.70064 1.79013
C 12.67589 15.10027 2.92609
O 12.38529 15.10333 1.45451
C 10.38555 17.45485 27.00542
O 9.84604 17.72865 28.37800
C 12.69623 15.07614 27.22050
O 12.40792 15.07628 28.69253
C 10.43660 22.00729 3.61284
O 9.94579 22.74082 2.39998
C 12.69972 19.77950 3.15225
O 12.42640 20.32084 1.78031
C 10.46457 21.99277 26.51480
O 9.97554 22.72654 27.72824
C 12.74388 19.73962 26.98343
O 12.47491 20.27784 28.35746
C 12.74484 24.14315 3.70319
O 12.50755 25.06657 2.54518
C 10.26699 24.40662 5.72334
O 9.75400 25.40225 4.72557
C 10.43096 26.54341 8.15310
O 9.93961 27.75678 7.42076
C 12.75734 26.44852 6.02341
O 12.52116 27.60755 5.10099
C 10.40452 26.96856 12.74316
O 9.86516 28.34208 12.47387
C 12.71877 27.00412 10.41693
O 12.44734 28.37831 9.88034
C 10.38204 27.00783 17.44372
O 9.84218 28.38053 17.71621
C 12.71376 27.20597 15.05221
O 12.42717 28.67833 15.04944
C 10.43908 26.51732 22.00400
O 9.94789 27.72966 22.73814
C 12.75388 26.99392 19.75658
O 12.48634 28.36769 20.29617
C 10.28357 24.38982 24.42497
O 9.77169 25.38493 25.42384
C 12.75878 24.11081 26.46047
O 12.52273 25.03167 27.62078
C 12.74482 26.45897 24.13968
O 12.50765 27.61765 25.06230
C 15.06644 3.94407 3.94788
O 15.06563 2.88322 2.88740
C 15.07915 3.31402 8.18351
O 15.07961 2.01983 7.42517
C 17.36797 3.72625 6.02398
O 17.60201 2.56790 5.10015
C 15.06203 2.94426 12.71991
O 15.06046 1.47175 12.43404
C 17.40384 3.18886 10.38347
O 17.67278 1.81622 9.84169
C 15.07842 2.91043 17.44434
O 15.07884 1.43809 17.73111
C 17.46445 2.90786 15.10298
O 17.75350 1.43597 15.10637
C 15.07153 3.30489 21.94296
O 15.07114 2.00932 22.69894
C 17.42583 3.14813 19.77221
O 17.69640 1.77536 20.31285
C 15.08482 3.98516 26.17537
O 15.08576 2.92500 27.23654
C 17.40071 3.67624 24.10436
O 17.63760 2.51520 25.02407
C 15.07857 8.16988 3.32623
O 15.07896 7.40983 2.03305
C 17.39466 6.03404 3.69773
O 17.63110 5.11250 2.53805
C 15.06422 8.18905 26.81959
O 15.06303 7.43037 28.11358
C 17.39186 6.01727 26.45234
O 17.62786 5.09464 27.61124
C 15.06928 12.72726 2.90628
O 15.06858 12.44311 1.43344
C 17.42977 10.40414 3.18004
O 17.70159 9.86496 1.80694
C 15.06299 12.67767 27.21846
O 15.06154 12.38715 28.69006
C 17.42503 10.40361 26.99654
O 17.69581 9.86535 28.37021
C 15.09430 17.42860 2.91751
O 15.09664 17.71370 1.44486
C 17.42408 15.06218 2.91548
O 17.70861 15.06062 1.44272
C 15.07570 17.42642 27.23901
O 15.07578 17.71111 28.71175
C 17.42457 15.06283 27.24277
O 17.70896 15.06136 28.71557
C 15.07736 21.94924 3.32373
O 15.07762 22.70664 2.02899
C 17.42014 19.76271 3.14601
O 17.69012 20.30236 1.77273
C 15.05602 21.98277 26.81703
O 15.05393 22.74335 28.10990
C 17.40124 19.76848 27.00546
O 17.66904 20.30880 28.37891
C 15.06971 26.18483 3.96316
O 15.06921 27.24539 2.90240
C 17.36311 24.11670 3.70513
O 17.59650 25.03896 2.54540
C 15.06705 26.81422 8.17413
O 15.06617 28.10734 7.41397
C 17.40342 26.44159 6.04888
O 17.64102 27.60144 5.12785
C 15.08153 27.19544 12.72505
O 15.08232 28.66801 12.43954
C 17.42052 26.97105 10.41636
O 17.69138 28.34481 9.87838
C 15.06924 27.22532 17.45929
O 15.06854 28.69725 17.74813
C 17.45219 27.20203 15.06639
O 17.74073 28.67402 15.06534
C 15.05800 26.80851 21.95934
O 15.05612 28.10226 22.71842
C 17.40964 26.97213 19.74580
O 17.67917 28.34565 20.28504
C 15.05202 26.17593 26.19594
O 15.04982 27.23564 27.25755
C 17.39944 24.10480 26.42669
O 17.63679 25.02682 27.58580
C 17.41001 26.45796 24.12784
O 17.64779 27.61710 25.04971
C 19.71421 3.59311 8.16985
O 20.20500 2.37841 7.43934
C 19.75748 3.16017 12.72114
O 20.29708 1.78713 12.44988
C 21.97385 3.61839 10.43968
O 22.70498 2.40424 9.94844
C 19.77595 3.17414 17.42663
O 20.31795 1.80202 17.69777
C 21.99001 3.31945 15.08924
O 22.75054 2.02655 15.09081
C 19.70464 3.60329 21.99134
O 20.19462 2.38916 22.72334
C 22.00458 3.61332 19.68780
O 22.73835 2.39965 20.17624
C 19.73329 8.13274 3.59367
O 20.22527 7.39954 2.38108
C 19.85274 5.73160 5.75692
O 20.36341 4.73294 4.76097
C 22.17666 5.69647 7.95455
O 22.95133 4.67343 7.17783
C 22.19063 7.96065 5.69044
O 22.96636 7.18506 4.66735
C 22.17402 5.67921 22.17587
O 22.94838 4.65431 22.95044
C 19.84187 5.72582 24.40129
O 20.35117 4.72695 25.39772
C 19.69374 8.18018 26.55596
O 20.18279 7.45012 27.77163
C 22.18572 7.96653 24.45745
O 22.96131 7.19119 25.48082
C 19.77003 12.71734 3.17512
O 20.31143 12.44547 1.80291
C 21.99941 10.43576 3.60831
O 22.73211 9.94487 2.39498
C 19.77133 12.72419 26.99538
O 20.31213 12.45349 28.36806
C 21.99950 10.42060 26.54336
O 22.73188 9.92832 27.75632
C 19.74654 17.40379 3.16618
O 20.28546 17.67245 1.79236
C 21.97462 15.09077 3.33641
O 22.73471 15.09251 2.04324
C 19.73470 17.42934 26.98908
O 20.27204 17.70083 28.36297
C 21.94289 15.07969 26.85585
O 22.69835 15.08021 28.15172
C 19.71551 21.96597 3.62750
O 20.20763 22.69675 2.41350
C 21.96726 19.71419 3.60905
O 22.69740 20.20564 2.39440
C 22.17906 22.19476 5.66406
O 22.95270 22.97010 4.63920
C 19.70729 22.01805 26.52248
O 20.19775 22.75317 27.73452
C 21.97340 19.69238 26.53726
O 22.70455 20.18177 27.75213
C 22.17734 22.21985 24.47697
O 22.95046 22.99759 25.50040
C 19.87745 24.39818 5.74732
O 20.39070 25.39458 4.75044
C 19.72899 26.54170 8.18311
O 20.22183 27.75598 7.45329
C 22.18715 24.45590 7.95452
O 22.96256 25.47866 7.17820
C 19.74361 26.98018 12.69596
O 20.28199 28.35308 12.42161
C 22.01658 26.51867 10.44585
O 22.75179 27.73073 9.95556
C 19.76225 26.96361 17.44803
O 20.30318 28.33561 17.72189
C 21.96883 26.82682 15.05143
O 22.72781 28.12064 15.04884
C 19.71775 26.54953 22.00964
O 20.20858 27.76262 22.74278
C 22.17481 24.47655 22.17626
O 22.94901 25.50174 22.95061
C 21.97350 26.54439 19.69445
O 22.70433 27.75946 20.18383
C 19.87523 24.39288 24.42801
O 20.38778 25.38782 25.42670
C 24.12486 3.71098 12.78617
O 25.04791 2.55189 12.55272
C 24.10985 3.71731 17.38834
O 25.03201 2.55806 17.62446
C 26.19749 3.98198 15.08376
O 27.25956 2.92273 15.08459
C 24.44926 7.95643 7.97750
O 25.47228 7.17957 7.20295
C 24.38873 5.75912 10.26682
O 25.38498 4.76264 9.75251
C 26.47044 6.01166 12.76023
O 27.62985 5.08953 12.52472
C 26.55146 8.13456 10.42975
O 27.76431 7.40108 9.93883
C 26.43783 6.01143 17.38148
O 27.59599 5.08763 17.61657
C 26.82733 8.18985 15.06323
O 28.12158 7.43161 15.06193
C 24.41523 5.75527 19.88282
O 25.41289 4.75980 20.39636
C 24.44705 7.93307 22.19936
O 25.46801 7.15505 22.97546
C 26.52611 8.17658 19.71130
O 27.74004 7.44528 20.20279
C 24.12149 12.74575 3.69693
O 25.04324 12.50842 2.53760
C 24.41118 10.30168 5.76412
O 25.40985 9.79109 4.76816
C 26.52005 10.46228 8.13313
O 27.73260 9.97359 7.39767
C 26.45705 12.77456 6.04130
O 27.61751 12.54001 5.12027
C 26.98130 10.40622 12.72683
O 28.35481 9.86763 12.45595
C 26.98752 12.73891 10.37733
O 28.36028 12.46970 9.83598
C 26.99567 10.38273 17.44496
O 28.36814 9.84249 17.71782
C 27.23417 12.69493 15.09668
O 28.70623 12.40679 15.09931
C 26.55747 10.42243 21.98912
O 27.77143 9.93054 22.72010
C 26.97905 12.74146 19.76956
O 28.35182 12.47236 20.31093
C 24.41346 10.31021 24.39865
O 25.41187 9.80078 25.39548
C 24.13323 12.76848 26.42667
O 25.05724 12.53320 27.58462
C 26.44535 12.74307 24.12220
O 27.60429 12.50538 25.04435
C 24.13446 17.40069 3.72213
O 25.05830 17.63785 2.56443
C 26.16837 15.07081 3.95665
O 27.22784 15.07041 2.89480
C 26.83399 15.06640 8.16950
O 28.12744 15.06546 7.40991
C 26.46472 17.37506 6.00499
O 27.62375 17.60912 5.08202
C 27.23488 15.04482 12.70814
O 28.70724 15.04116 12.42155
C 26.97322 17.41184 10.38032
O 28.34581 17.68142 9.83874
C 27.23444 15.04867 17.46689
O 28.70624 15.04549 17.75640
C 27.22165 17.45873 15.06350
O 28.69358 17.74759 15.06211
C 26.82168 15.08723 21.96720
O 28.11543 15.08857 22.72629
C 26.99236 17.39822 19.73384
O 28.36693 17.66618 20.27120
C 24.11751 17.37849 26.46045
O 25.03891 17.61320 27.62060
C 26.20416 15.09999 26.16683
O 27.26660 15.10238 27.22571
C 26.46738 17.38897 24.14022
O 27.62658 17.62442 25.06263
C 24.39756 19.84164 5.73725
O 25.39431 20.35128 4.73887
C 24.44522 22.20621 7.96245
O 25.46694 22.98379 7.18690
C 26.53850 19.69709 8.17125
O 27.75307 20.18680 7.43980
C 26.97103 19.74746 12.73810
O 28.34442 20.28690 12.46831
C 26.52974 21.98550 10.44201
O 27.74339 22.71768 9.95114
C 26.99035 19.77984 17.44583
O 28.36223 20.32153 17.71880
C 26.81371 21.99190 15.09242
O 28.10605 22.75339 15.09434
C 24.48002 22.19363 22.22053
O 25.50298 22.96791 22.99773
C 26.51235 19.72291 21.98842
O 27.72483 20.21563 22.72131
C 26.54656 21.97373 19.68901
O 27.76185 22.70458 20.17782
C 24.39392 19.87276 24.41599
O 25.38955 20.38535 25.41398
C 24.38241 24.39974 10.29230
O 25.37848 25.39767 9.78046
C 24.10778 26.46161 12.78379
O 25.02863 27.62242 12.55022
C 26.47105 24.09138 12.74420
O 27.63255 25.01034 12.50664
C 24.13997 26.45058 17.40388
O 25.06302 27.60891 17.64102
C 26.44351 24.12940 17.38351
O 27.60232 25.05232 17.61882
C 26.18696 26.18514 15.08160
O 27.24771 27.24571 15.08223
C 24.39364 24.41530 19.88957
O 25.38887 25.41285 20.40377
