633
Atoms with added C and O
Pt 10.24402 12.26897 16.03155
Pt 12.25698 10.14656 16.12348
Pt 12.07436 11.95004 13.92422
Pt 10.34388 10.32366 18.10814
Pt 10.15332 12.14214 20.04749
Pt 12.28447 10.19961 20.05397
Pt 12.16493 12.16110 18.00542
Pt 12.01944 11.95275 22.20737
Pt 10.24706 16.02957 12.24244
Pt 11.98748 14.01880 12.06599
Pt 12.20933 16.13262 10.14486
Pt 10.21871 14.03808 14.07421
Pt 9.92182 16.06025 16.01068
Pt 12.17927 14.10531 16.11598
Pt 12.06439 16.12476 14.17057
Pt 10.05714 14.13386 18.12032
Pt 9.88619 16.05879 20.03509
Pt 12.11501 14.09707 20.07917
Pt 12.04178 16.11164 18.03656
Pt 10.25230 14.11533 21.98071
Pt 10.15978 16.12357 23.92538
Pt 12.01054 13.98693 24.08785
Pt 12.12774 16.09425 22.00955
Pt 12.24536 16.10440 25.87447
Pt 10.31726 18.10335 10.40913
Pt 10.19849 20.05864 12.25155
Pt 12.25948 18.01781 12.20258
Pt 12.25098 20.03953 10.23740
Pt 9.95668 18.11681 14.21563
Pt 9.97436 19.98873 16.05813
Pt 12.04614 18.01554 16.06924
Pt 12.07378 20.00136 14.12096
Pt 9.83471 18.03848 18.02878
Pt 9.99938 20.00856 19.99881
Pt 11.91791 17.98234 19.94615
Pt 12.04741 19.97728 18.02646
Pt 9.99977 18.05005 21.93184
Pt 10.21008 20.10460 23.85407
Pt 12.22969 18.13497 23.98334
Pt 12.15389 20.01158 21.91986
Pt 10.24536 18.11491 25.74229
Pt 12.24304 20.05947 25.98282
Pt 11.98695 22.12555 12.05588
Pt 10.21402 22.05801 14.02778
Pt 10.12349 23.85602 16.01587
Pt 12.10980 21.97181 16.08300
Pt 12.10351 24.14902 14.03766
Pt 9.94341 21.93436 18.09060
Pt 10.20522 23.86034 20.06558
Pt 12.07916 22.00195 20.03327
Pt 12.17891 23.92855 18.08742
Pt 10.14572 22.01493 22.00345
Pt 11.99530 22.18099 24.11429
Pt 12.06936 24.10063 22.12206
Pt 12.22393 25.92803 16.08109
Pt 10.28967 25.74973 18.00563
Pt 12.23206 25.97100 20.04193
Pt 13.99516 12.04248 12.06310
Pt 16.07632 10.21961 12.23258
Pt 16.02965 12.27795 10.13449
Pt 14.08625 10.13848 14.08833
Pt 14.19935 12.04170 16.10668
Pt 16.16531 9.93318 16.06280
Pt 16.02909 12.11241 14.12393
Pt 14.22112 9.91817 18.02994
Pt 14.07155 12.12309 20.03774
Pt 16.01492 9.95153 19.96319
Pt 16.07357 12.06305 18.04572
Pt 14.12050 10.16411 22.02159
Pt 13.90988 12.00606 24.09395
Pt 16.06078 10.13912 23.84003
Pt 16.05566 12.11990 21.95776
Pt 16.00555 12.19926 25.93977
Pt 14.09077 14.15234 10.14812
Pt 14.13325 16.07471 12.05764
Pt 16.07913 14.16932 12.10910
Pt 16.17600 16.10258 9.96950
Pt 14.01453 14.07708 14.13060
Pt 14.02641 16.12475 16.06496
Pt 16.12645 14.12874 16.05495
Pt 16.10844 16.07050 14.08480
Pt 14.10891 14.08241 18.11830
Pt 14.06159 16.08930 20.03400
Pt 16.11794 14.02024 20.08056
Pt 16.07286 16.06049 18.00653
Pt 14.05586 14.04571 22.03671
Pt 14.19426 16.11939 23.96521
Pt 16.10213 14.06822 24.01987
Pt 16.10690 16.13306 22.03811
Pt 14.02923 14.09566 25.95368
Pt 16.02347 16.07777 26.15178
Pt 14.24578 18.02514 9.94752
Pt 14.17878 20.01882 12.13452
Pt 16.14934 18.06871 12.06272
Pt 16.05363 19.98312 9.98311
Pt 14.15176 18.06701 14.09647
Pt 14.07553 20.06230 16.02625
Pt 16.09607 18.08164 16.01777
Pt 16.12328 20.01341 14.06912
Pt 14.06138 18.03120 18.04849
Pt 14.07493 19.97717 19.98533
Pt 16.13092 18.04377 20.07037
Pt 16.11966 20.04712 18.07257
Pt 14.08999 18.04362 21.97790
Pt 14.17607 20.08413 23.96741
Pt 16.13127 18.07520 24.15711
Pt 16.13904 20.07872 22.07994
Pt 14.18828 18.10078 26.10297
Pt 16.04438 20.08733 26.19469
Pt 14.10102 21.96361 10.12588
Pt 14.00972 24.05181 12.04269
Pt 16.10825 22.01555 12.08928
Pt 16.06732 23.91394 10.12696
Pt 14.12568 22.03379 14.06570
Pt 14.08270 24.03126 16.07796
Pt 16.02302 22.01391 16.06322
Pt 16.10645 24.02899 14.13337
Pt 14.12684 21.96389 18.12522
Pt 14.18299 24.03731 20.04178
Pt 16.04281 22.00759 20.10807
Pt 16.09306 24.05648 18.02529
Pt 14.12130 22.10721 22.03573
Pt 13.89261 24.11875 24.06504
Pt 16.12443 21.95008 24.07855
Pt 16.12378 24.04380 22.05403
Pt 14.10431 21.99009 25.95800
Pt 15.97929 23.89565 25.91736
Pt 16.06270 25.94113 12.20751
Pt 14.11435 25.98161 14.06873
Pt 16.07682 26.19132 16.15479
Pt 14.14223 26.06701 18.01700
Pt 16.05200 26.10976 20.05130
Pt 14.14284 25.96371 21.99353
Pt 16.07432 25.94498 23.90646
Pt 18.06666 10.29117 10.30337
Pt 18.00878 12.24802 12.18605
Pt 19.97786 10.24046 12.18546
Pt 20.13667 12.17574 10.16274
Pt 18.03822 10.05735 14.10870
Pt 18.08589 11.97511 16.03623
Pt 20.00769 10.01992 16.10120
Pt 20.10045 12.11038 14.08631
Pt 18.05980 9.84225 18.05437
Pt 18.00833 11.96171 19.99931
Pt 19.98960 9.97299 20.10915
Pt 19.95510 12.01068 18.10666
Pt 18.00261 9.94894 21.94152
Pt 18.09145 12.20335 23.94063
Pt 20.00333 10.24759 23.95362
Pt 20.00288 12.14611 21.96807
Pt 18.07678 10.36339 25.86105
Pt 20.06717 12.24463 25.86242
Pt 18.06875 14.18467 9.98337
Pt 18.11501 16.06973 12.03711
Pt 19.98851 14.12942 12.12093
Pt 20.03796 16.12978 9.95787
Pt 18.12792 14.12589 14.16477
Pt 18.08576 16.13475 16.13930
Pt 20.02450 14.13770 16.10385
Pt 20.11886 16.11465 14.06909
Pt 18.06851 14.00849 18.03490
Pt 18.07604 16.06661 20.02006
Pt 20.00456 14.11561 19.97362
Pt 20.09011 16.12606 18.05704
Pt 18.00489 14.16417 22.05054
Pt 18.03911 16.10796 24.14972
Pt 20.01867 14.14417 23.95036
Pt 20.08134 16.10578 22.01883
Pt 18.03856 14.15612 26.13650
Pt 19.95939 16.12616 26.25350
Pt 18.06473 18.05750 9.91450
Pt 18.02496 20.06902 12.00895
Pt 19.97681 18.09845 12.05536
Pt 19.99149 20.02064 9.93439
Pt 18.11317 18.02454 14.02720
Pt 18.04246 20.03804 16.07597
Pt 20.00307 18.02217 16.09237
Pt 20.05690 20.04402 14.07289
Pt 18.09485 18.13172 18.10219
Pt 18.06269 20.11370 20.10517
Pt 20.08976 18.07214 20.10522
Pt 19.99482 20.07820 18.09525
Pt 18.07538 18.01902 22.05351
Pt 18.08522 19.95609 24.13438
Pt 19.97824 18.01789 24.19311
Pt 20.02720 20.01159 22.06562
Pt 18.07364 17.99716 26.19987
Pt 19.96157 20.04576 26.18416
Pt 18.12350 21.91719 10.00474
Pt 18.01288 23.89893 12.19690
Pt 20.04465 21.99835 12.11996
Pt 20.09264 23.93634 10.16478
Pt 18.11759 22.07178 14.19989
Pt 18.00398 24.16936 16.12975
Pt 20.04653 22.05931 16.09361
Pt 20.06238 23.99360 14.10311
Pt 18.05051 22.12671 18.08721
Pt 18.02171 24.14461 20.05040
Pt 20.05239 22.10851 20.08927
Pt 20.03986 24.15627 18.11239
Pt 18.07367 22.02558 22.08164
Pt 18.05518 23.90542 24.01992
Pt 20.04162 22.01229 24.01445
Pt 20.02397 23.98420 22.03761
Pt 17.97842 21.90036 26.14854
Pt 20.06224 23.85262 25.91264
Pt 18.11963 25.73279 10.28427
Pt 20.02301 25.92869 12.21372
Pt 18.05692 26.05990 14.22143
Pt 20.02354 26.19396 16.13821
Pt 18.09055 26.23386 18.11518
Pt 20.09172 26.11155 20.06845
Pt 18.09247 26.19745 21.99047
Pt 19.96038 25.89769 23.96098
Pt 17.97627 25.78286 25.84716
Pt 22.17331 12.06672 12.05188
Pt 22.05587 10.25119 14.03211
Pt 21.93836 12.07636 16.08870
Pt 23.87195 10.18461 16.14348
Pt 24.06587 12.03951 13.95563
Pt 21.95946 9.94750 18.10180
Pt 21.98302 12.08619 20.04441
Pt 23.96515 10.19508 20.00615
Pt 23.96039 12.17616 18.04823
Pt 22.05635 10.16752 22.09034
Pt 22.18675 12.07363 24.12583
Pt 24.14174 12.08739 22.15015
Pt 22.01516 14.12477 10.23559
Pt 21.97561 16.14988 12.06626
Pt 24.07469 14.00558 12.00270
Pt 23.93236 16.04554 10.20732
Pt 22.07924 14.04600 14.03111
Pt 22.10750 16.14414 16.08691
Pt 24.05585 14.12694 16.13806
Pt 23.99792 16.13011 14.19596
Pt 22.01102 14.08252 18.02328
Pt 22.08002 16.15220 20.03591
Pt 23.95685 14.18891 19.98928
Pt 24.18097 16.13199 18.09599
Pt 21.98234 14.02612 22.01589
Pt 21.95209 16.10215 23.98076
Pt 24.04488 13.95892 24.11724
Pt 23.98685 16.03249 21.99640
Pt 21.98413 14.07196 25.90456
Pt 23.85345 16.00440 25.89632
Pt 21.92150 18.10647 9.96512
Pt 21.97307 20.01893 12.11329
Pt 23.92231 18.06576 12.12373
Pt 23.90445 20.09623 10.29014
Pt 22.07183 18.12436 14.14972
Pt 22.00087 20.01122 16.16189
Pt 24.08246 18.13986 16.10883
Pt 23.97567 20.07950 14.10466
Pt 22.10192 18.08413 18.07919
Pt 22.02241 20.01812 20.11500
Pt 24.10729 18.05117 20.03430
Pt 24.16533 20.00134 18.14217
Pt 22.03125 18.11058 22.05897
Pt 21.97556 20.07634 24.02530
Pt 23.87854 18.01201 24.00377
Pt 24.03880 20.08255 22.07797
Pt 21.93039 18.02044 26.15327
Pt 23.92437 20.05102 25.87558
Pt 22.07748 22.08312 10.17235
Pt 22.21187 24.06609 12.01214
Pt 24.04861 22.20793 12.03841
Pt 22.05256 22.07897 14.12042
Pt 21.98294 24.01668 16.09333
Pt 23.99755 21.97949 16.10002
Pt 24.13206 24.14714 13.93887
Pt 21.95399 21.97118 18.10033
Pt 21.94837 24.00239 20.00203
Pt 23.95982 21.99625 20.09614
Pt 23.93306 23.87831 18.12304
Pt 22.05472 22.03949 22.09736
Pt 22.08402 24.10469 24.08723
Pt 24.05833 22.13940 24.13979
Pt 24.05280 24.04397 22.10720
Pt 21.97389 21.97319 25.95554
Pt 21.94683 26.00631 14.07373
Pt 23.94459 25.90716 16.05442
Pt 21.97724 26.13120 18.05414
Pt 23.81186 25.93798 20.03788
Pt 21.96173 25.93477 22.06942
Pt 25.93194 12.26484 16.01747
Pt 25.76963 10.26459 18.12993
Pt 25.95621 12.26958 20.12566
Pt 25.93539 16.08835 12.29740
Pt 25.99241 14.14171 14.04785
Pt 26.13794 16.09641 16.14423
Pt 26.09427 14.12223 18.12864
Pt 26.12822 16.15477 20.06942
Pt 25.92777 14.09827 22.01298
Pt 25.90653 16.10740 23.92660
Pt 25.83182 18.01795 10.28135
Pt 25.99655 20.01770 12.29331
Pt 26.17999 18.07450 14.14839
Pt 26.11572 20.02419 16.16160
Pt 26.26997 18.00583 18.02120
Pt 26.18296 19.99024 20.06057
Pt 26.04615 18.07656 21.97893
Pt 25.95917 20.05283 23.96663
Pt 25.74616 18.06026 25.86949
Pt 25.99061 22.02116 14.08194
Pt 25.89193 23.88345 16.13969
Pt 26.12982 21.97740 18.03644
Pt 25.93007 23.95366 20.08648
Pt 25.91991 22.06654 22.05668
Pt 25.73661 25.80298 18.03636
C 8.67137 11.10319 15.62200
O 7.49189 10.22885 15.31483
C 11.09711 8.56422 15.73501
O 10.22720 7.37747 15.44366
C 10.81499 10.66388 13.05254
O 9.87047 9.69927 12.39879
C 8.93181 8.90733 18.11569
O 7.87275 7.84508 18.12136
C 8.58367 10.96674 20.44071
O 7.40643 10.08519 20.73563
C 11.12437 8.62010 20.45314
O 10.25430 7.43547 20.75252
C 10.75279 10.67148 23.07567
O 9.80280 9.71053 23.72689
C 8.67742 15.62111 11.07223
O 7.50019 15.31478 10.19457
C 10.70189 13.16265 10.79546
O 9.73769 12.52054 9.84256
C 11.04341 15.74799 8.56604
O 10.16897 15.45953 7.38191
C 8.59796 13.20620 13.24889
O 7.38240 12.58229 12.62991
C 8.03568 15.59617 15.53410
O 6.62108 15.24810 15.17666
C 8.26186 13.25249 18.13231
O 6.91540 12.59146 18.14130
C 7.99475 15.59510 20.49056
O 6.57618 15.24733 20.83217
C 8.62307 13.29162 22.79747
O 7.40114 12.67383 23.41003
C 8.58367 15.73673 25.09423
O 7.40159 15.44659 25.97087
C 10.73141 13.12510 25.36106
O 9.77206 12.47872 26.31597
C 11.07428 15.70999 27.44706
O 10.19598 15.41419 28.62650
C 8.89532 18.11085 9.00271
O 7.82886 18.11647 7.94790
C 8.62312 20.45867 11.08614
O 7.44159 20.75869 10.21208
C 11.08311 20.43703 8.66321
O 10.20721 20.73515 7.48256
C 8.15037 18.12891 13.35710
O 6.79563 18.13799 12.71320
C 8.08326 20.43927 15.58829
O 6.66493 20.77717 15.23591
C 7.83474 18.03264 18.01952
O 6.33476 18.02825 18.01257
C 8.10596 20.46571 20.45265
O 6.68589 20.80857 20.79302
C 8.19640 18.04726 22.79663
O 6.84387 18.04516 23.44522
C 8.63448 20.51450 25.01573
O 7.45277 20.82193 25.88697
C 8.81856 18.12448 27.14376
O 7.74845 18.13165 28.19487
C 11.08254 20.45790 27.56222
O 10.21216 20.75673 28.74676
C 10.70328 22.98442 10.78524
O 9.74053 23.62857 9.83225
C 8.59415 22.88296 13.19382
O 7.37925 23.50167 12.56835
C 8.54222 25.01039 15.60720
O 7.35626 25.87616 15.30070
C 10.83909 25.44114 13.18229
O 9.89077 26.41023 12.54076
C 8.13830 22.79550 18.09588
O 6.78447 23.44135 18.09984
C 8.62883 25.02398 20.46672
O 7.44654 25.89672 20.76759
C 8.51102 22.83135 22.81660
O 7.28500 23.44367 23.42647
C 10.71903 23.04776 25.38703
O 9.76183 23.69784 26.34158
C 10.79792 25.38225 22.98280
O 9.84434 26.34347 23.62835
C 11.05602 27.50221 15.68367
O 10.18008 28.68284 15.38560
C 8.86794 27.15634 17.99442
O 7.80164 28.21130 17.98602
C 11.06892 27.54951 20.43614
O 10.19656 28.73339 20.73180
C 13.13257 10.76484 10.78891
O 12.48563 9.80660 9.83326
C 15.67866 8.64696 11.06269
O 15.38041 7.46748 10.18528
C 15.62470 11.12394 8.55200
O 15.32098 10.25843 7.36513
C 13.26840 8.50739 13.26938
O 12.65500 7.28407 12.65518
C 15.72399 8.03918 15.59588
O 15.39300 6.61868 15.24570
C 13.36849 8.10904 18.02173
O 12.72901 6.75220 18.01558
C 15.53816 8.06019 20.40538
O 15.18058 6.64168 20.73702
C 13.30595 8.53080 22.83939
O 12.69504 7.30581 23.45274
C 13.03615 10.73084 25.36297
O 12.38086 9.77443 26.31474
C 15.66124 8.55527 24.99405
O 15.36159 7.36738 25.85957
C 15.59594 11.02999 27.50981
O 15.28874 10.15304 28.68733
C 13.27098 13.34464 8.51240
O 12.65613 12.73887 7.28562
C 15.73497 15.64366 8.07348
O 15.40420 15.29946 6.65147
C 13.19865 13.27815 27.57905
O 12.57571 12.66501 28.79807
C 15.54833 15.61460 28.03850
O 15.19198 15.26722 29.45354
C 13.39550 18.01680 8.13729
O 12.75778 18.01055 6.77961
C 15.58428 20.43251 8.09161
O 15.23226 20.76956 6.67299
C 13.32029 18.10936 27.90478
O 12.66930 18.11579 29.25614
C 15.57658 20.55739 28.08154
O 15.22572 20.90993 29.49668
C 13.28422 22.76857 8.48732
O 12.67162 23.37229 7.25840
C 13.14904 25.32466 10.76242
O 12.50354 26.27930 9.80222
C 15.67134 25.07697 8.54881
O 15.37436 25.94925 7.36520
C 13.01424 25.39538 25.32944
O 12.35546 26.35285 26.27773
C 13.28553 22.80314 27.59157
O 12.67144 23.41293 28.81674
C 15.56321 25.06237 27.48759
O 15.25115 25.93741 28.66527
C 15.66411 27.51377 11.03793
O 15.36518 28.69325 10.16074
C 13.30166 27.61293 13.24512
O 12.69214 28.83641 12.62742
C 15.61480 28.08552 15.70922
O 15.26829 29.50618 15.37505
C 13.26310 27.86339 18.00581
O 12.60376 29.21068 17.99742
C 15.58119 27.99702 20.51670
O 15.22808 29.41246 20.86574
C 13.33138 27.60069 22.80706
O 12.72278 28.82842 23.41720
C 15.67763 27.52010 25.07336
O 15.38011 28.70143 25.94853
C 18.06796 8.87624 8.88987
O 18.06894 7.81505 7.82974
C 20.36258 8.67177 11.00597
O 20.65112 7.49526 10.12135
C 20.54913 11.00679 8.59320
O 20.85848 10.13008 7.41605
C 18.03345 8.26454 13.22224
O 18.02987 6.91993 12.55740
C 20.46579 8.12876 15.63899
O 20.80937 6.71038 15.29233
C 18.05987 7.84225 18.05133
O 18.05992 6.34225 18.04905
C 20.44037 8.08372 20.58611
O 20.77844 6.66678 20.94383
C 17.98995 8.14421 22.80337
O 17.98046 6.79066 23.44975
C 20.39305 8.68072 25.13389
O 20.68535 7.50557 26.01910
C 18.07994 8.95788 27.28391
O 18.08230 7.90375 28.35106
C 20.47144 11.07311 27.43217
O 20.77465 10.19448 28.60948
C 18.07081 13.31961 8.18013
O 18.07236 12.67081 6.82770
C 20.49980 15.67861 8.06495
O 20.84618 15.34024 6.64526
C 18.03389 13.28469 27.93666
O 18.03039 12.63111 29.28679
C 20.39997 15.67711 28.15198
O 20.73040 15.34033 29.57585
C 18.06601 18.05626 7.91450
O 18.06697 18.05534 6.41450
C 20.44157 20.47680 8.03983
O 20.77913 20.81893 6.61892
C 18.07711 17.98108 28.19980
O 18.07972 17.96903 29.69975
C 20.40547 20.50860 28.07856
O 20.73839 20.85574 29.49935
C 18.13782 22.77988 8.20042
O 18.14856 23.42689 6.84718
C 20.49709 25.10481 8.59281
O 20.80043 25.98117 7.41384
C 17.96030 22.75827 27.95510
O 17.94670 23.40169 29.31002
C 20.46462 25.01593 27.48896
O 20.76640 25.88841 28.67121
C 18.13063 27.13667 8.85983
O 18.13888 28.18958 7.79151
C 20.41573 27.50199 11.04304
O 20.71026 28.68197 10.16502
C 18.05634 27.86236 13.35474
O 18.05590 29.21420 12.70473
C 20.48110 28.08836 15.68888
O 20.82428 29.50916 15.35189
C 18.09814 28.23381 18.12701
O 18.10384 29.73378 18.13588
C 20.56768 27.99667 20.53723
O 20.92465 29.41052 20.88881
C 18.09977 27.99886 22.85931
O 18.10524 29.34991 23.51094
C 20.34105 27.46674 25.14132
O 20.62654 28.64352 26.02657
C 17.96108 27.19155 27.26679
O 17.94969 28.24807 28.33152
C 23.04518 10.79599 10.77709
O 23.69907 9.84295 9.82099
C 22.88348 8.63351 13.19653
O 23.50420 7.42026 12.56985
C 25.03709 8.60544 15.75793
O 25.91094 7.42106 15.46876
C 25.33740 10.76447 13.08529
O 26.29104 9.80818 12.43254
C 22.82577 8.14488 18.10956
O 23.47550 6.79291 18.11538
C 25.14314 8.62577 20.39297
O 26.02663 7.44879 20.68309
C 22.87868 8.54317 22.91815
O 23.49542 7.32490 23.53900
C 23.05873 10.80833 25.40593
O 23.71272 9.85936 26.36601
C 25.42851 10.82328 23.01402
O 26.39358 9.87519 23.66192
C 22.83781 13.30583 8.60692
O 23.45481 12.69163 7.38541
C 25.34694 13.14751 10.72009
O 26.30113 12.50395 9.75813
C 25.10499 15.64281 8.63801
O 25.98446 15.34077 7.46102
C 25.31184 13.09028 25.39797
O 26.26207 12.43880 26.35852
C 22.79913 13.24327 27.53215
O 23.41038 12.62175 28.75284
C 25.01745 15.59092 27.46926
O 25.89046 15.28081 28.64897
C 22.78209 18.11626 8.15976
O 23.42752 18.12360 6.80575
C 25.08065 20.50549 8.72520
O 25.96281 20.81243 7.55149
C 22.79392 18.01106 27.95722
O 23.44157 18.00402 29.31018
C 25.10131 20.45006 27.44261
O 25.98402 20.74934 28.61788
C 22.90355 22.90973 8.54928
O 23.52310 23.52968 7.33199
C 23.08753 25.33214 10.73530
O 23.74428 26.28168 9.77767
C 25.31548 23.08480 10.76321
O 26.26563 23.74246 9.80681
C 25.40564 25.42326 13.07312
O 26.36083 26.38034 12.42380
C 22.93746 25.38599 25.36391
O 23.57754 26.34697 26.32142
C 25.32661 23.00134 25.42374
O 26.27782 23.64779 26.38670
C 25.33041 25.31906 22.96850
O 26.28862 26.27538 23.61447
C 22.78637 22.78489 27.59293
O 23.39572 23.39367 28.82097
C 22.74804 27.64360 13.25071
O 23.34895 28.87156 12.63345
C 25.12030 27.47435 15.65238
O 26.00209 28.64974 15.35085
C 22.85081 27.93033 18.05131
O 23.50598 29.27968 18.04918
C 24.96815 27.52103 20.43407
O 25.83536 28.70832 20.73121
C 22.77005 27.56548 22.89853
O 23.37629 28.78850 23.52036
C 27.50809 11.10407 15.60716
O 28.69021 10.23350 15.29942
C 27.17579 8.84241 18.14143
O 28.23040 7.77578 18.15006
C 27.53433 11.11189 20.53710
O 28.71791 10.24362 20.84568
C 27.51680 15.69195 11.13894
O 28.70285 15.39465 10.27010
C 27.62489 13.33487 13.22080
O 28.84924 12.72973 12.60050
C 28.03125 15.63562 15.69363
O 29.45123 15.29003 15.35567
C 27.88991 13.24163 18.14244
O 29.23665 12.58118 18.15280
C 28.02015 15.70744 20.53897
O 29.43910 15.37194 20.89114
C 27.55785 13.27699 22.83050
O 28.78041 12.66103 23.44364
C 27.47802 15.71586 25.10010
O 28.65663 15.42220 25.98023
C 27.24482 18.00985 8.86595
O 28.30457 18.00377 7.80439
C 27.58274 20.40844 11.13948
O 28.77239 20.70149 10.27411
C 27.98124 18.07715 13.27920
O 29.33218 18.07914 12.62731
C 28.00958 20.48534 15.71371
O 29.42998 20.83121 15.37779
C 28.26989 17.99202 18.01008
O 29.76983 17.98167 18.00174
C 28.07571 20.43939 20.52510
O 29.49526 20.77625 20.87350
C 27.84225 18.07972 22.85870
O 29.18933 18.08209 23.51854
C 27.52992 20.44858 25.13972
O 28.70798 20.74539 26.01954
C 27.14974 18.05984 27.29425
O 28.20243 18.05953 28.36282
C 27.62275 22.83580 13.26188
O 28.84685 23.44679 12.64684
C 27.46675 25.05384 15.75220
O 28.64786 25.93162 15.46158
C 27.92926 22.85030 18.02965
O 29.27884 23.50498 18.02456
C 27.49846 25.12760 20.48894
O 28.67476 26.00807 20.79078
C 27.54366 22.89367 22.88087
O 28.76148 23.51401 23.49901
C 27.14500 27.22298 18.03076
O 28.20129 28.28799 18.02656
