331
Atoms with added C and O
Pt 50.20570 50.35110 56.03990
Pt 49.91250 52.17940 54.03220
Pt 50.10820 54.14770 52.14020
Pt 50.16950 52.17120 57.90210
Pt 49.90110 54.01040 55.95410
Pt 50.14890 53.97250 59.71410
Pt 50.28060 56.05480 50.14490
Pt 49.70420 55.90900 54.07600
Pt 50.20720 57.75840 52.09830
Pt 49.93190 55.93090 57.77110
Pt 49.73750 57.86930 55.88210
Pt 50.27190 55.84640 61.83510
Pt 50.04010 57.93710 59.69290
Pt 50.13040 59.71110 53.97490
Pt 50.09350 59.93030 57.83200
Pt 50.14710 61.84800 55.80500
Pt 52.11180 50.07630 54.12750
Pt 54.05390 49.97500 52.24140
Pt 52.13960 50.15280 57.90230
Pt 54.02270 49.88690 55.94660
Pt 54.01240 50.03110 59.85160
Pt 52.05630 53.77930 50.08900
Pt 53.97740 51.81130 50.15670
Pt 51.98170 51.87600 52.16000
Pt 51.96120 54.00110 53.93920
Pt 54.07010 52.15380 54.05420
Pt 53.90850 53.85230 51.93200
Pt 51.99510 52.15190 55.98920
Pt 52.07580 54.06750 57.96460
Pt 54.13850 52.09860 57.99460
Pt 54.02640 54.09860 56.00120
Pt 52.06370 51.98460 60.07910
Pt 52.11550 53.84960 62.00520
Pt 54.15700 52.13270 61.93810
Pt 54.01660 54.05790 59.94050
Pt 52.17320 58.02290 49.90510
Pt 53.95990 55.88220 49.86960
Pt 52.11640 55.90280 51.92530
Pt 52.01180 57.88240 53.99830
Pt 54.03560 55.95820 53.85870
Pt 53.92890 57.94580 51.97530
Pt 51.98190 55.90860 55.88510
Pt 51.96400 57.92930 57.81020
Pt 53.98970 55.94470 58.03320
Pt 54.04490 58.01610 55.92290
Pt 51.94600 56.05310 59.80410
Pt 51.98870 57.97680 61.91900
Pt 53.94690 55.96970 61.93730
Pt 53.92080 57.89030 59.88350
Pt 54.04610 59.86650 50.00630
Pt 51.94910 59.95780 51.89820
Pt 52.13410 61.86410 53.84490
Pt 54.05090 59.90820 54.00380
Pt 54.08830 61.85500 52.07250
Pt 52.04240 59.84510 55.90950
Pt 52.10980 61.86010 57.76730
Pt 54.01190 59.86950 57.93170
Pt 54.03230 62.03790 55.89870
Pt 51.96570 59.89560 59.96540
Pt 54.07180 59.64830 61.84270
Pt 53.98300 61.72890 59.79280
Pt 55.94340 50.04410 50.29110
Pt 56.05700 49.97200 54.12270
Pt 57.77230 49.98290 52.22150
Pt 55.99170 49.97060 57.87330
Pt 58.04660 49.86230 56.11280
Pt 55.98580 50.16350 61.75380
Pt 57.91700 50.11410 59.79630
Pt 55.86110 54.01340 49.96320
Pt 57.85250 52.17340 50.09920
Pt 55.92030 52.00890 52.06690
Pt 55.89410 54.08960 54.03010
Pt 57.91540 52.00530 54.04640
Pt 57.78910 54.00760 52.02810
Pt 56.01130 51.99240 55.97460
Pt 56.04050 53.96580 57.90350
Pt 58.01580 52.03450 57.93560
Pt 57.93430 54.01830 55.91670
Pt 55.97830 52.05650 59.90600
Pt 55.97340 54.08300 62.07380
Pt 57.79410 52.22710 61.91580
Pt 57.96240 53.96800 59.87360
Pt 55.89890 57.85480 49.80000
Pt 57.77720 55.91740 49.87320
Pt 55.87830 56.02690 51.84460
Pt 55.92810 57.92560 54.03700
Pt 57.83250 55.97100 53.97780
Pt 57.82210 57.89760 51.96360
Pt 55.94990 56.01870 55.96830
Pt 55.88450 57.91650 57.95350
Pt 57.93410 55.90300 57.85230
Pt 57.91350 57.83660 55.90730
Pt 55.99690 55.95700 59.95920
Pt 56.02080 57.82680 62.16730
Pt 57.92270 56.00380 62.02280
Pt 57.90500 57.94540 59.84720
Pt 55.96710 61.87840 50.29950
Pt 57.86350 59.69270 50.04740
Pt 55.93490 59.80310 52.04880
Pt 56.02050 62.05890 53.99180
Pt 57.94740 59.98090 54.13640
Pt 58.01540 61.82710 52.07690
Pt 55.90090 60.00390 55.91740
Pt 55.95870 62.01030 57.93540
Pt 57.91920 59.81860 57.84910
Pt 57.82370 62.04180 56.03200
Pt 56.00860 59.77770 59.88190
Pt 55.91350 61.65160 61.70470
Pt 57.79160 59.71950 61.98190
Pt 57.90170 61.78440 59.82690
Pt 59.77900 50.04560 53.98940
Pt 59.92470 50.15210 58.02450
Pt 61.67910 50.21780 56.02390
Pt 59.80460 53.94730 50.16220
Pt 59.85750 51.69750 51.92490
Pt 59.76090 53.95110 53.86570
Pt 61.69560 52.17210 53.97560
Pt 61.77390 54.02880 52.05580
Pt 59.85370 52.05400 56.01120
Pt 60.05750 54.05070 57.89540
Pt 62.02360 52.24100 57.83030
Pt 62.01790 54.02520 55.90280
Pt 60.01510 52.03070 60.04980
Pt 59.89880 54.08830 61.69030
Pt 61.96160 54.08490 59.86200
Pt 59.83760 57.85620 50.08160
Pt 61.65980 55.89340 50.17890
Pt 59.75540 55.95170 52.07290
Pt 59.76200 57.89310 53.96880
Pt 61.92250 55.89590 53.94030
Pt 61.81720 57.85700 52.11680
Pt 59.99910 55.86920 55.90380
Pt 59.87190 57.84940 57.88680
Pt 61.93400 55.94060 57.83340
Pt 62.01770 57.85000 55.86190
Pt 59.91560 56.05960 59.88140
Pt 59.85430 58.03780 61.79290
Pt 61.79410 56.03560 61.68280
Pt 61.96380 58.04840 59.66290
Pt 59.86210 59.85270 52.03620
Pt 59.78510 61.89460 54.09770
Pt 61.75940 59.72730 53.90920
Pt 59.87860 59.78620 55.93440
Pt 59.75270 61.81310 57.90610
Pt 61.81860 59.77750 57.80220
Pt 61.69510 61.63050 55.96120
Pt 59.96920 59.98990 59.93060
C 48.77357 48.95519 56.06105
O 47.69948 47.90826 56.07691
C 48.27496 51.15620 53.51111
O 47.04681 50.38880 53.12030
C 48.48665 53.64647 51.08221
O 47.27049 53.27054 50.28871
C 48.55838 51.11750 58.44432
O 47.35003 50.32723 58.85099
C 47.99692 53.39875 55.95382
O 46.56879 52.94002 55.95360
C 48.53503 53.42144 60.75898
O 47.32463 53.00815 61.54264
C 48.88330 56.07938 48.71418
O 47.83532 56.09781 47.64115
C 47.78891 55.89491 53.50026
O 46.35245 55.88433 53.06846
C 48.60007 58.26264 51.01994
O 47.39472 58.64083 50.21116
C 48.01707 55.92324 58.34847
O 46.58094 55.91749 58.78149
C 47.82617 58.45778 55.85969
O 46.39267 58.89914 55.84288
C 48.88210 55.81984 63.27307
O 47.83976 55.79992 64.35155
C 48.41341 58.48221 60.72088
O 47.19339 58.89104 61.49186
C 48.51425 60.75330 53.42548
O 47.30213 61.53496 53.01342
C 48.49350 61.01543 58.34436
O 47.29351 61.82927 58.72863
C 48.74344 63.27223 55.76875
O 47.69069 64.34040 55.74156
C 51.05268 48.45623 53.62387
O 50.25834 47.24118 53.24615
C 53.53244 48.33473 51.22278
O 53.14134 47.10452 50.45882
C 51.08155 48.54379 58.44231
O 50.28801 47.33703 58.84731
C 53.41585 47.98119 55.94396
O 52.96072 46.55191 55.94198
C 53.48393 48.41956 60.91163
O 53.08758 47.21091 61.70666
C 50.99857 53.18902 48.49753
O 50.20527 52.74632 47.30393
C 53.44263 50.69078 48.58875
O 53.04155 49.85039 47.41279
C 50.82043 50.68384 51.05085
O 49.94948 49.78972 50.21898
C 50.93938 50.83742 61.27069
O 50.09613 49.97704 62.16438
C 51.08732 53.28580 63.62538
O 50.31619 52.86294 64.84051
C 53.66601 51.08892 63.57194
O 53.29776 50.30608 64.79733
C 51.15498 58.57966 48.27622
O 50.39132 58.99724 47.05456
C 53.33687 55.85947 47.96925
O 52.86960 55.84242 46.54399
C 50.92283 58.52012 63.52172
O 50.12342 58.92762 64.72376
C 53.31045 55.97436 63.83333
O 52.83312 55.97785 65.25535
C 53.52815 60.92783 48.39220
O 53.13968 61.72383 47.18163
C 50.79900 61.10701 50.73348
O 49.93642 61.96892 49.85994
C 51.09389 63.47281 53.27044
O 50.31373 64.67934 52.83960
C 53.57725 63.47025 51.00958
O 53.19396 64.68169 50.21239
C 51.05285 63.48327 58.26546
O 50.26013 64.70065 58.63908
C 53.42955 63.94483 55.88105
O 52.97749 65.37503 55.86781
C 50.80836 61.03881 61.12886
O 49.94036 61.89622 62.00145
C 53.54875 60.67410 63.47798
O 53.15646 61.44345 64.70445
C 53.43583 63.33098 60.85767
O 53.02545 64.53254 61.65632
C 55.94057 48.60004 48.90738
O 55.93844 47.51699 47.86959
C 56.08960 48.05992 53.53712
O 56.11404 46.62587 53.09794
C 58.27199 48.34081 51.19493
O 58.64675 47.10923 50.42501
C 56.00338 48.06609 58.48379
O 56.01214 46.63770 58.94166
C 58.69580 47.97123 56.16178
O 59.18269 46.55293 56.19851
C 55.99332 48.75019 63.16889
O 55.99895 47.69020 64.23021
C 58.45743 48.50524 60.85437
O 58.86274 47.29860 61.64793
C 55.83129 53.39694 48.06081
O 55.80893 52.93460 46.63402
C 58.37781 51.12650 48.47807
O 58.77178 50.34132 47.26223
C 55.97915 53.49789 63.98629
O 55.98346 53.05906 65.42065
C 58.30024 51.20113 63.55629
O 58.67985 50.43166 64.78666
C 55.88148 58.44464 47.88903
O 55.86842 58.88702 46.45581
C 58.35121 55.90556 47.95738
O 58.78171 55.89667 46.52051
C 56.04108 58.40376 64.08216
O 56.05629 58.83648 65.51831
C 58.53962 56.01910 63.92521
O 59.00232 56.03058 65.35202
C 55.97005 63.32495 48.91838
O 55.97227 64.40985 47.88254
C 58.39023 60.72428 48.41694
O 58.78528 61.49797 47.19410
C 56.04093 63.96275 53.37947
O 56.05625 65.39063 52.92021
C 58.57739 63.42875 51.01912
O 58.99887 64.62999 50.22579
C 55.95986 63.91122 58.55710
O 55.96073 65.33691 59.02337
C 58.41063 63.95359 56.05618
O 58.85083 65.38742 56.07432
C 55.90324 63.05922 63.12544
O 55.89555 64.11493 64.19100
C 58.29207 60.74532 63.62422
O 58.66742 61.51469 64.85596
C 58.43770 63.38945 60.89298
O 58.83970 64.59324 61.69254
C 60.82552 48.42837 53.45147
O 61.61040 47.21545 53.04803
C 61.00798 48.56857 58.58924
O 61.82044 47.38092 59.01279
C 63.09164 48.80202 56.04090
O 64.15105 47.74019 56.05365
C 60.86813 53.39263 48.56181
O 61.66578 52.97663 47.36152
C 60.96576 50.48842 50.78040
O 61.79696 49.58161 49.92202
C 63.30042 51.11457 53.42225
O 64.50403 50.32142 53.00723
C 63.37590 53.49850 50.98231
O 64.57740 53.10077 50.17720
C 63.67315 51.23147 58.34004
O 64.91031 50.47432 58.72234
C 63.92362 53.41861 55.88639
O 65.35292 52.96368 55.87409
C 61.17927 50.90547 61.22392
O 62.05240 50.06154 62.10451
C 60.99333 53.57023 63.28203
O 61.81423 53.18168 64.47583
C 63.58380 53.57984 60.91716
O 64.80046 53.20105 61.70854
C 60.90237 58.37759 48.47088
O 61.70094 58.76863 47.26283
C 63.06516 55.87823 48.75597
O 64.11918 55.86684 47.68878
C 63.81734 55.87713 53.30058
O 65.23846 55.86306 52.82079
C 63.43202 58.38093 51.05952
O 64.64314 58.77388 50.26655
C 63.84205 55.93600 58.43284
O 65.27308 55.93256 58.88243
C 63.92642 58.44660 55.83259
O 65.35796 58.89406 55.81061
C 60.91927 58.60665 63.38734
O 61.71800 59.03329 64.58317
C 63.22179 56.05531 63.08327
O 64.29255 56.07009 64.13363
C 63.59562 58.61691 60.66986
O 64.81948 59.04329 61.42508
C 61.01657 61.00439 50.87827
O 61.88242 61.86816 50.00982
C 60.83338 63.52024 53.58937
O 61.61959 64.73947 53.20811
C 63.36760 60.77248 53.34238
O 64.57375 61.55636 52.91726
C 60.80050 63.42937 58.44442
O 61.58635 64.64158 58.84815
C 63.43857 60.83356 58.31254
O 64.65354 61.62561 58.69529
C 63.11729 63.03669 55.96274
O 64.18394 64.09133 55.96389
C 61.12560 61.15226 61.07588
O 61.99289 62.02403 61.93484
